this is a test...
one line...dev branch...
dev branch changed...master dont want change...hahahahaha
new line...
another change...
this line can not be commited yet.
fixed bugs...
